#!/bin/bash

curl -L -o linux.zip https://github.com/MODFLOW-USGS/executables/releases/download/3.0/linux.zip?raw=true
mkdir binaries
sudo unzip linux.zip -d /usr/local/bin/
rm linux.zip
